MATDSS_ver0.95/DSS_Files/123Bus/ieee123_SystemY.txt
System Y Matrix (Lower Triangle by Columns)

  Row  Col               G               B

[   1,   1] =   288.8949271 + j -38889.49271
[   4,   1] =  -278.4529418 + j  27845.29418
[   2,   2] =   288.8949271 + j -38889.49271
[   5,   2] =  -278.4529418 + j  27845.29418
[   3,   3] =   288.8949271 + j -38889.49271
[   6,   3] =  -278.4529418 + j  27845.29418
[   4,   4] =   1000268.388 + j -26838.83776
[   7,   4] =      -1000000 + j            0
[   5,   5] =   1000268.388 + j -26838.83776
[   8,   5] =      -1000000 + j            0
[   6,   6] =   1000268.388 + j -26838.83776
[   9,   6] =      -1000000 + j            0
[   7,   7] =   1000006.423 + j -13.31824447
[   8,   7] =  -3.119897098 + j  4.571812123
[   9,   7] =  -1.125818194 + j  2.969664676
[  10,   7] =  -6.422970611 + j  13.31824468
[  11,   7] =   3.119897098 + j -4.571812192
[  12,   7] =   1.125818194 + j -2.969664702
[   8,   8] =   1000007.182 + j -13.80116134
[   9,   8] =  -1.911067478 + j  3.624476505
[  10,   8] =   3.119897098 + j -4.571812192
[  11,   8] =  -7.182343584 + j  13.80116157
[  12,   8] =   1.911067478 + j -3.624476549
[   9,   9] =    1000005.77 + j -12.85328846
[  10,   9] =   1.125818194 + j -2.969664702
[  11,   9] =   1.911067478 + j -3.624476549
[  12,   9] =  -5.770479295 + j  12.85328867
[  10,  10] =   14.99387587 + j -31.07937611
[  11,  10] =  -7.279759894 + j  10.66756166
[  12,  10] =   -2.62690912 + j  6.929217593
[  15,  10] =  -8.563960815 + j  17.75765958
[  16,  10] =   4.159862797 + j -6.095749589
[  17,  10] =   1.501090925 + j -3.959552937
[  11,  11] =   27.95309046 + j -43.55111801
[  12,  11] =  -4.459157449 + j   8.45711187
[  13,  11] =  -11.19428877 + j  11.34840815
[  15,  11] =   4.159862797 + j -6.095749589
[  16,  11] =  -9.576458112 + j  18.40154876
[  17,  11] =   2.548089971 + j -4.832635398
[  12,  12] =   21.30045383 + j -37.93489213
[  14,  12] =  -7.836002137 + j  7.943885702
[  15,  12] =   1.501090925 + j -3.959552937
[  16,  12] =   2.548089971 + j -4.832635398
[  17,  12] =  -7.693972394 + j  17.13771822
[  13,  13] =   11.19776099 + j -11.35014418
[  14,  14] =   23.65869876 + j -23.98442381
[  18,  14] =  -9.795002671 + j  9.929857128
[  19,  14] =  -6.027693951 + j   6.11068131
[  15,  15] =   21.41337426 + j -44.39588479
[  16,  15] =  -10.39965699 + j  15.23937389
[  17,  15] =  -3.752727314 + j  9.898882309
[  21,  15] =  -12.84594122 + j  26.63648937
[  22,  15] =   6.239794195 + j -9.143624384
[  23,  15] =   2.251636388 + j -5.939329405
[  16,  16] =   23.94114528 + j -46.00387162
[  17,  16] =  -6.370224927 + j  12.08158844
[  21,  16] =   6.239794195 + j -9.143624384
[  22,  16] =  -14.36468717 + j  27.60232314
[  23,  16] =   3.822134956 + j -7.248953098
[  17,  17] =   19.23493098 + j  -42.8442953
[  21,  17] =   2.251636388 + j -5.939329405
[  22,  17] =   3.822134956 + j -7.248953098
[  23,  17] =  -11.54095859 + j  25.70657733
[  18,  18] =   9.801947115 + j -9.933329265
[  19,  19] =   13.86716831 + j -14.05630288
[  20,  19] =  -7.836002137 + j  7.943885702
[  20,  20] =   7.842946581 + j -7.947357818
[  21,  21] =   30.11657108 + j -53.22068825
[  22,  21] =  -10.39965699 + j  15.23937389
[  23,  21] =  -3.752727314 + j  9.898882309
[  25,  21] =  -8.706669041 + j  8.826539669
[  26,  21] =  -8.563960815 + j  17.75765958
[  27,  21] =   4.159862797 + j -6.095749589
[  28,  21] =   1.501090925 + j -3.959552937
[  22,  22] =   32.64781432 + j -54.83041119
[  23,  22] =  -6.370224927 + j  12.08158844
[  24,  22] =  -8.706669041 + j  8.826539669
[  26,  22] =   4.159862797 + j -6.095749589
[  27,  22] =  -9.576458112 + j  18.40154876
[  28,  22] =   2.548089971 + j -4.832635398
[  23,  23] =   19.23493098 + j  -42.8442953
[  26,  23] =   1.501090925 + j -3.959552937
[  27,  23] =   2.548089971 + j -4.832635398
[  28,  23] =  -7.693972394 + j  17.13771822
[  24,  24] =   8.710141263 + j -8.828275684
[  25,  25] =   12.18005243 + j -3475.268956
[  29,  25] =  -3.466438945 + j  3466.438945
[  26,  26] =   1000012.046 + j -24.44913119
[  27,  26] =  -5.086441024 + j  7.853071337
[  28,  26] =  -3.013768297 + j  6.176188995
[  32,  26] =  -3.482348433 + j  6.691472236
[  33,  26] =  0.9265782276 + j -1.757321891
[  34,  26] =   1.512677372 + j -2.216636221
[ 260,  26] =      -1000000 + j            0
[  27,  27] =   1000012.374 + j -24.63344567
[  28,  27] =  -3.093941204 + j  6.272472764
[  32,  27] =  0.9265782276 + j -1.757321891
[  33,  27] =  -2.797808171 + j    6.2318975
[  34,  27] =  0.5458512332 + j -1.439837454
[ 261,  27] =      -1000000 + j            0
[  28,  28] =   1000023.868 + j -36.83485783
[  31,  28] =  -13.06000356 + j   13.2398095
[  32,  28] =   1.512677372 + j -2.216636221
[  33,  28] =  0.5458512332 + j -1.439837454
[  34,  28] =  -3.114167561 + j  6.457330767
[ 262,  28] =      -1000000 + j            0
[  29,  29] =   8.075851966 + j -3471.111818
[  30,  29] =  -4.609413022 + j  4.672873943
[  30,  30] =   20.28141729 + j -20.56064495
[  35,  30] =  -7.836002137 + j  7.943885702
[  36,  30] =  -7.836002137 + j  7.943885702
[  31,  31] =   32.65695335 + j -33.10299588
[  37,  31] =  -19.59000534 + j  19.85971426
[  32,  32] =   1000020.895 + j -33.03690584
[  33,  32] =  -3.474668353 + j  6.589956967
[  34,  32] =  -5.672540145 + j  8.312385633
[  40,  32] =  -7.836002137 + j  7.943885702
[  41,  32] =  -9.576458189 + j  18.40154865
[  42,  32] =   2.548090126 + j   -4.8326352
[  43,  32] =   4.159862773 + j -6.095749607
[ 257,  32] =      -1000000 + j            0
[  33,  33] =   1000010.492 + j -23.36961505
[  34,  33] =  -2.046942124 + j  5.399390376
[  41,  33] =   2.548090126 + j   -4.8326352
[  42,  33] =   -7.69397247 + j  17.13771813
[  43,  33] =   1.501090891 + j -3.959552997
[ 258,  33] =      -1000000 + j            0
[  34,  34] =   1000011.678 + j -24.21498977
[  41,  34] =   4.159862773 + j -6.095749607
[  42,  34] =   1.501090891 + j -3.959552997
[  43,  34] =  -8.563960793 + j  17.75765961
[ 259,  34] =      -1000000 + j            0
[  35,  35] =   7.842946581 + j -7.947357818
[  36,  36] =   7.839474359 + j -7.945621706
[  37,  37] =   30.41115115 + j -30.82984178
[  38,  37] =  -5.224001424 + j  5.295923802
[  39,  37] =  -5.597144383 + j  5.674204073
[  38,  38] =   5.230945869 + j -5.299395863
[  39,  39] =   5.600616606 + j -5.675940034
[  40,  40] =   13.87064053 + j -14.05803899
[  44,  40] =  -6.027693951 + j   6.11068131
[  41,  41] =   21.06820802 + j -40.48340672
[  42,  41] =  -5.605798277 + j  10.63179738
[  43,  41] =    -9.1516981 + j  13.41064904
[  46,  41] =  -11.49174983 + j  22.08185838
[  47,  41] =   3.057708151 + j  -5.79916224
[  48,  41] =   4.991835327 + j -7.314899529
[  42,  42] =   20.65816902 + j -41.48578208
[  43,  42] =  -3.302399961 + j  8.711016557
[  45,  42] =  -3.731429589 + j  3.782802715
[  46,  42] =   3.057708151 + j  -5.79916224
[  47,  42] =  -9.232766964 + j  20.56526175
[  48,  42] =   1.801309069 + j -4.751463597
[  43,  43] =   18.84071375 + j -39.06685085
[  46,  43] =   4.991835327 + j -7.314899529
[  47,  43] =   1.801309069 + j -4.751463597
[  48,  43] =  -10.27675295 + j  21.30919153
[  44,  44] =   6.034638396 + j -6.114153393
[  45,  45] =   3.738374033 + j -3.786274713
[  46,  46] =   21.93879512 + j -42.15627479
[  47,  46] =  -5.837442834 + j  11.07112786
[  48,  46] =  -9.529867443 + j   13.9648081
[  50,  46] =   -10.4470453 + j  20.07441671
[  51,  46] =   2.779734683 + j -5.271965673
[  52,  46] =   4.538032116 + j -6.649908663
[  47,  47] =   17.62619148 + j -39.26095398
[  48,  47] =  -3.438862769 + j  9.070975922
[  50,  47] =   2.779734683 + j -5.271965673
[  51,  47] =  -8.393424512 + j   18.6956925
[  52,  47] =   1.637553699 + j -4.319512361
[  48,  48] =   23.18107479 + j -44.29204045
[  49,  48] =  -3.561819153 + j  3.610857137
[  50,  48] =   4.538032116 + j -6.649908663
[  51,  48] =   1.637553699 + j -4.319512361
[  52,  48] =  -9.342502684 + j   19.3719923
[  49,  49] =   3.568763597 + j -3.614329124
[  50,  50] =   28.27817153 + j -3514.115684
[  51,  50] =  -6.601869872 + j  12.52091842
[  52,  50] =  -10.77782628 + j  15.79353299
[  53,  50] =  -3.423643402 + j  3423.643402
[  57,  50] =  -14.36468728 + j  27.60232297
[  58,  50] =   3.822135189 + j   -7.2489528
[  59,  50] =   6.239794159 + j -9.143624411
[  51,  51] =   19.93438322 + j -44.40226944
[  52,  51] =  -3.889190036 + j  10.25884182
[  57,  51] =   3.822135189 + j   -7.2489528
[  58,  51] =   -11.5409587 + j  25.70657719
[  59,  51] =   2.251636337 + j -5.939329496
[  52,  52] =   25.65488282 + j -3512.447426
[  54,  52] =  -3.466438945 + j  3466.438945
[  57,  52] =   6.239794159 + j -9.143624411
[  58,  52] =   2.251636337 + j -5.939329496
[  59,  52] =  -12.84594119 + j  26.63648942
[  53,  53] =   9.241760802 + j -3394.901971
[  54,  53] =  -2.233075242 + j  4.764880546
[  55,  53] =  -5.860384603 + j  13.52577165
[  56,  53] =   2.233075242 + j -4.764880581
[  54,  54] =   9.480213589 + j -3480.040613
[  55,  54] =   2.233075242 + j -4.764880581
[  56,  54] =  -6.013774645 + j  13.60166826
...
